@<TRIPOS>MOLECULE
    J28
   39    41     0     0     0
SMALL
USER_CHARGES

@<TRIPOS>ATOM
      1 C1         -1.9612   21.5502  -27.3300 ca       1 J28      -0.0960
      2 C2         -1.2942   22.4120  -28.1957 ca       1 J28      -0.1290
      3 C3         -1.9550   22.9520  -29.2938 ca       1 J28       0.0524
      4 C4         -3.2998   22.6223  -29.5426 ca       1 J28      -0.1436
      5 C5         -3.9689   21.7588  -28.6534 ca       1 J28       0.0524
      6 C6         -3.2917   21.2292  -27.5624 ca       1 J28      -0.1290
      7 Cl1        -5.6403   21.3533  -28.9190 cl       1 J28      -0.0599
      8 C7         -4.0401   23.1522  -30.7110 c        1 J28       0.6917
      9 O1         -4.2265   22.4198  -31.6685 o        1 J28      -0.5501
     10 N1         -4.5133   24.4119  -30.6476 ns       1 J28      -0.4601
     11 C8         -5.2869   25.1112  -31.5800 ca       1 J28       0.1276
     12 C9         -5.9620   24.5479  -32.6807 ca       1 J28      -0.3033
     13 C10        -6.7806   25.3609  -33.4589 ca       1 J28       0.4442
     14 N2         -6.9234   26.6542  -33.1828 nb       1 J28      -0.7370
     15 C11        -6.2984   27.2317  -32.1577 ca       1 J28       0.5492
     16 C12        -5.5070   26.4571  -31.3066 ca       1 J28      -0.3203
     17 N3         -6.5391   28.5828  -31.8838 ns       1 J28      -0.5484
     18 C13        -5.7134   29.4445  -31.2331 c        1 J28       0.7001
     19 O2         -4.6156   29.1218  -30.8098 o        1 J28      -0.5861
     20 C14        -6.2319   30.8471  -31.0310 cx       1 J28      -0.2187
     21 C15        -5.5787   31.7462  -29.9763 cx       1 J28      -0.0974
     22 C16        -5.3636   32.0236  -31.4653 cx       1 J28      -0.1087
     23 C17        -4.0190   31.7003  -32.0462 c3       1 J28      -0.0811
     24 Cl2        -1.1124   24.0506  -30.3318 cl       1 J28      -0.0599
     25 H1         -7.3054   30.9413  -31.1624 hc       1 J28       0.1077
     26 H2         -5.8627   32.8962  -31.8829 hc       1 J28       0.0837
     27 H3         -1.4436   21.1321  -26.4786 ha       1 J28       0.1480
     28 H4         -0.2591   22.6635  -28.0157 ha       1 J28       0.1570
     29 H5         -3.8111   20.5610  -26.8909 ha       1 J28       0.1570
     30 H6         -4.3168   24.9848  -29.8393 hn       1 J28       0.3305
     31 H7         -5.8400   23.4993  -32.9094 ha       1 J28       0.1830
     32 H8         -7.3119   24.9439  -34.3018 h4       1 J28       0.0251
     33 H9         -5.0645   26.9093  -30.4313 ha       1 J28       0.1780
     34 H10        -7.4045   29.0126  -32.1802 hn       1 J28       0.3345
     35 H11        -6.3523   32.2035  -29.3584 hc       1 J28       0.0842
     36 H12        -4.9174   31.1488  -29.3474 hc       1 J28       0.0842
     37 H13        -3.5059   32.6244  -32.3125 hc       1 J28       0.0464
     38 H14        -3.4266   31.1553  -31.3112 hc       1 J28       0.0464
     39 H15        -4.1459   31.0859  -32.9375 hc       1 J28       0.0464
@<TRIPOS>BOND
     1     1     2    1
     2     1     6    2
     3     1    27    1
     4     2     3    2
     5     2    28    1
     6     3     4    1
     7     3    24    1
     8     4     5    2
     9     4     8    1
    10     5     6    1
    11     5     7    1
    12     6    29    1
    13     8     9    2
    14     8    10    1
    15    10    11    1
    16    10    30    1
    17    11    12    1
    18    11    16    2
    19    12    13    2
    20    12    31    1
    21    13    14    1
    22    13    32    1
    23    14    15    2
    24    15    16    1
    25    15    17    1
    26    16    33    1
    27    17    18    1
    28    17    34    1
    29    18    19    2
    30    18    20    1
    31    20    21    1
    32    20    22    1
    33    20    25    1
    34    21    22    1
    35    21    35    1
    36    21    36    1
    37    22    23    1
    38    22    26    1
    39    23    37    1
    40    23    38    1
    41    23    39    1
