@<TRIPOS>MOLECULE
    J28
   39    41     0     0     0
SMALL
USER_CHARGES

@<TRIPOS>ATOM
      1 C1         -2.3222   21.0103  -27.2571 ca       1 J28      -0.0960
      2 C2         -1.8560   22.3053  -27.5264 ca       1 J28      -0.1290
      3 C3         -2.3309   23.0094  -28.6457 ca       1 J28       0.0524
      4 C4         -3.2819   22.4190  -29.5088 ca       1 J28      -0.1436
      5 C5         -3.7430   21.1134  -29.2300 ca       1 J28       0.0524
      6 C6         -3.2646   20.4156  -28.1085 ca       1 J28      -0.1290
      7 Cl1        -4.9443   20.3399  -30.2515 cl       1 J28      -0.0599
      8 C7         -3.7974   23.1613  -30.7083 c        1 J28       0.6917
      9 O1         -3.5704   22.7793  -31.8426 o        1 J28      -0.5501
     10 N1         -4.5239   24.3074  -30.4157 ns       1 J28      -0.4601
     11 C8         -5.1589   25.2113  -31.3135 ca       1 J28       0.1276
     12 C9         -5.6544   24.8130  -32.5677 ca       1 J28      -0.3033
     13 C10        -6.2929   25.7685  -33.3717 ca       1 J28       0.4442
     14 N2         -6.4546   27.0526  -32.9972 nb       1 J28      -0.7370
     15 C11        -5.9840   27.4587  -31.7998 ca       1 J28       0.5492
     16 C12        -5.3434   26.5496  -30.9269 ca       1 J28      -0.3203
     17 N3         -6.1622   28.8060  -31.3936 ns       1 J28      -0.5484
     18 C13        -5.2906   29.6113  -30.6774 c        1 J28       0.7001
     19 O2         -4.2091   29.2355  -30.2607 o        1 J28      -0.5861
     20 C14        -5.7981   31.0173  -30.4537 cx       1 J28      -0.2187
     21 C15        -4.8129   32.1641  -30.5240 cx       1 J28      -0.0974
     22 C16        -5.8374   31.9877  -31.6189 cx       1 J28      -0.1087
     23 C17        -5.3885   31.5806  -33.0241 c3       1 J28      -0.0811
     24 Cl2        -1.6938   24.6171  -28.9551 cl       1 J28      -0.0599
     25 H1         -6.5932   31.1072  -29.7179 hc       1 J28       0.1077
     26 H2         -6.6672   32.6904  -31.6283 hc       1 J28       0.0837
     27 H3         -1.9531   20.4683  -26.3908 ha       1 J28       0.1480
     28 H4         -1.1220   22.7626  -26.8685 ha       1 J28       0.1570
     29 H5         -3.6273   19.4135  -27.8970 ha       1 J28       0.1570
     30 H6         -4.5890   24.5598  -29.4377 hn       1 J28       0.3305
     31 H7         -5.5741   23.7877  -32.9133 ha       1 J28       0.1830
     32 H8         -6.6952   25.4962  -34.3467 h4       1 J28       0.0251
     33 H9         -4.9967   26.8717  -29.9503 ha       1 J28       0.1780
     34 H10        -7.0023   29.2460  -31.7460 hn       1 J28       0.3345
     35 H11        -4.9511   32.9913  -29.8325 hc       1 J28       0.0842
     36 H12        -3.7755   31.9344  -30.7560 hc       1 J28       0.0842
     37 H13        -5.1494   32.4676  -33.6237 hc       1 J28       0.0464
     38 H14        -4.4953   30.9433  -32.9992 hc       1 J28       0.0464
     39 H15        -6.1841   31.0293  -33.5406 hc       1 J28       0.0464
@<TRIPOS>BOND
     1     1     2    1
     2     1     6    2
     3     1    27    1
     4     2     3    2
     5     2    28    1
     6     3     4    1
     7     3    24    1
     8     4     5    2
     9     4     8    1
    10     5     6    1
    11     5     7    1
    12     6    29    1
    13     8     9    2
    14     8    10    1
    15    10    11    1
    16    10    30    1
    17    11    12    1
    18    11    16    2
    19    12    13    2
    20    12    31    1
    21    13    14    1
    22    13    32    1
    23    14    15    2
    24    15    16    1
    25    15    17    1
    26    16    33    1
    27    17    18    1
    28    17    34    1
    29    18    19    2
    30    18    20    1
    31    20    21    1
    32    20    22    1
    33    20    25    1
    34    21    22    1
    35    21    35    1
    36    21    36    1
    37    22    23    1
    38    22    26    1
    39    23    37    1
    40    23    38    1
    41    23    39    1
