@<TRIPOS>MOLECULE
    E31
   32    33     0     0     0
SMALL
USER_CHARGES

@<TRIPOS>ATOM
      1 C1         -1.9612   21.5502  -27.3300 ca       1 E31      -0.0960
      2 C2         -1.2942   22.4120  -28.1957 ca       1 E31      -0.1290
      3 C3         -1.9550   22.9520  -29.2938 ca       1 E31       0.0524
      4 C4         -3.2998   22.6223  -29.5426 ca       1 E31      -0.1436
      5 C5         -3.9689   21.7588  -28.6534 ca       1 E31       0.0524
      6 C6         -3.2917   21.2292  -27.5624 ca       1 E31      -0.1290
      7 Cl1        -5.6403   21.3533  -28.9190 cl       1 E31      -0.0604
      8 C7         -4.0401   23.1522  -30.7110 c        1 E31       0.6917
      9 O1         -4.2265   22.4198  -31.6685 o        1 E31      -0.5501
     10 N1         -4.5133   24.4119  -30.6476 ns       1 E31      -0.4601
     11 C8         -5.2869   25.1112  -31.5800 ca       1 E31       0.1276
     12 C9         -5.9620   24.5479  -32.6807 ca       1 E31      -0.3043
     13 C10        -6.7806   25.3609  -33.4589 ca       1 E31       0.4452
     14 N2         -6.9234   26.6542  -33.1828 nb       1 E31      -0.7380
     15 C11        -6.2984   27.2317  -32.1577 ca       1 E31       0.5512
     16 C12        -5.5070   26.4571  -31.3066 ca       1 E31      -0.3233
     17 N3         -6.5391   28.5828  -31.8838 ns       1 E31      -0.5534
     18 C13        -5.7134   29.4445  -31.2331 c        1 E31       0.6711
     19 O2         -4.6156   29.1218  -30.8098 o        1 E31      -0.5931
     20 C14        -6.2319   30.8471  -31.0310 c3       1 E31      -0.1781
     21 Cl2        -1.1124   24.0506  -30.3318 cl       1 E31      -0.0604
     22 H1         -7.3054   30.9413  -31.1624 hc       1 E31       0.0710
     23 H2         -1.4436   21.1321  -26.4786 ha       1 E31       0.1480
     24 H3         -0.2591   22.6635  -28.0157 ha       1 E31       0.1570
     25 H4         -3.8111   20.5610  -26.8909 ha       1 E31       0.1570
     26 H5         -4.3168   24.9848  -29.8393 hn       1 E31       0.3305
     27 H6         -5.8400   23.4993  -32.9094 ha       1 E31       0.1830
     28 H7         -7.3119   24.9439  -34.3018 h4       1 E31       0.0251
     29 H8         -5.0645   26.9093  -30.4313 ha       1 E31       0.1800
     30 H9         -7.4045   29.0126  -32.1802 hn       1 E31       0.3315
     31 H10        -5.7229   31.5232  -31.7179 hc       1 E31       0.0710
     32 H11        -5.9579   31.1937  -30.0346 hc       1 E31       0.0710
@<TRIPOS>BOND
     1     1     2    1
     2     1     6    2
     3     1    23    1
     4     2     3    2
     5     2    24    1
     6     3     4    1
     7     3    21    1
     8     4     5    2
     9     4     8    1
    10     5     6    1
    11     5     7    1
    12     6    25    1
    13     8     9    2
    14     8    10    1
    15    10    11    1
    16    10    26    1
    17    11    12    1
    18    11    16    2
    19    12    13    2
    20    12    27    1
    21    13    14    1
    22    13    28    1
    23    14    15    2
    24    15    16    1
    25    15    17    1
    26    16    29    1
    27    17    18    1
    28    17    30    1
    29    18    19    2
    30    18    20    1
    31    20    22    1
    32    20    31    1
    33    20    32    1
