@<TRIPOS>MOLECULE
    E31
   32    33     0     0     0
SMALL
USER_CHARGES

@<TRIPOS>ATOM
      1 C1         -1.9776   21.5276  -27.2886 ca       1 E31      -0.0960
      2 C2         -1.3080   22.4349  -28.1241 ca       1 E31      -0.1290
      3 C3         -1.9507   22.9523  -29.2611 ca       1 E31       0.0524
      4 C4         -3.2702   22.5630  -29.5699 ca       1 E31      -0.1436
      5 C5         -3.9373   21.6519  -28.7258 ca       1 E31       0.0524
      6 C6         -3.2917   21.1370  -27.5892 ca       1 E31      -0.1290
      7 Cl1        -5.5840   21.1510  -29.0706 cl       1 E31      -0.0604
      8 C7         -3.9570   23.1117  -30.7811 c        1 E31       0.6917
      9 O1         -3.9126   22.5366  -31.8536 o        1 E31      -0.5501
     10 N1         -4.6168   24.3147  -30.5714 ns       1 E31      -0.4601
     11 C8         -5.3797   25.0953  -31.4876 ca       1 E31       0.1276
     12 C9         -5.9877   24.5543  -32.6353 ca       1 E31      -0.3043
     13 C10        -6.7420   25.4022  -33.4593 ca       1 E31       0.4452
     14 N2         -6.9152   26.7129  -33.2013 nb       1 E31      -0.7380
     15 C11        -6.3411   27.2559  -32.1081 ca       1 E31       0.5512
     16 C12        -5.5770   26.4613  -31.2220 ca       1 E31      -0.3233
     17 N3         -6.5390   28.6319  -31.8208 ns       1 E31      -0.5534
     18 C13        -5.6539   29.5328  -31.2489 c        1 E31       0.6711
     19 O2         -4.5273   29.2383  -30.8924 o        1 E31      -0.5931
     20 C14        -6.2019   30.9510  -31.1137 c3       1 E31      -0.1781
     21 Cl2        -1.0880   24.0884  -30.2839 cl       1 E31      -0.0604
     22 H1         -7.1199   30.9434  -30.5132 hc       1 E31       0.0710
     23 H2         -1.4793   21.1283  -26.4095 ha       1 E31       0.1480
     24 H3         -0.2908   22.7370  -27.8900 ha       1 E31       0.1570
     25 H4         -3.8097   20.4358  -26.9406 ha       1 E31       0.1570
     26 H5         -4.5309   24.7134  -29.6452 hn       1 E31       0.3305
     27 H6         -5.9076   23.5021  -32.8853 ha       1 E31       0.1830
     28 H7         -7.2322   25.0177  -34.3528 h4       1 E31       0.0251
     29 H8         -5.1467   26.8918  -30.3238 ha       1 E31       0.1800
     30 H9         -7.4242   29.0032  -32.1405 hn       1 E31       0.3315
     31 H10        -6.4355   31.3570  -32.1057 hc       1 E31       0.0710
     32 H11        -5.4641   31.6014  -30.6272 hc       1 E31       0.0710
@<TRIPOS>BOND
     1     1     2    1
     2     1     6    2
     3     1    23    1
     4     2     3    2
     5     2    24    1
     6     3     4    1
     7     3    21    1
     8     4     5    2
     9     4     8    1
    10     5     6    1
    11     5     7    1
    12     6    25    1
    13     8     9    2
    14     8    10    1
    15    10    11    1
    16    10    26    1
    17    11    12    1
    18    11    16    2
    19    12    13    2
    20    12    27    1
    21    13    14    1
    22    13    28    1
    23    14    15    2
    24    15    16    1
    25    15    17    1
    26    16    29    1
    27    17    18    1
    28    17    30    1
    29    18    19    2
    30    18    20    1
    31    20    22    1
    32    20    31    1
    33    20    32    1
